
This summary information was generated by AeroDyn on 24-Jan-2020 at 11:36:43.

======  General Options  ============================================================================
            1  WakeMod        - Type of wake/induction model: Blade-Element/Momentum Theory
            2  AFAeroMod      - Type of blade airfoil aerodynamics model: Beddoes-Leishman unsteady model
            0  TwrPotent      - Type tower influence on wind based on potential flow around the tower: none
            F  TwrShadow      - Calculate tower influence on wind based on downstream tower shadow? No
            F  TwrAero        - Calculate tower aerodynamic loads? No
======  Blade-Element/Momentum Theory Options  ======================================================
            2  SkewMod        - Type of skewed-wake correction model: Pitt/Peters
            T  TipLoss        - Use the Prandtl tip-loss model? Yes
            T  HubLoss        - Use the Prandtl hub-loss model? Yes
            T  TanInd         - Include tangential induction in BEMT calculations? Yes
            F  AIDrag         - Include the drag term in the axial-induction calculation? No
            F  AIDrag         - Include the drag term in the tangential-induction calculation? No
   5.0000E-10  IndToler       - Convergence tolerance for BEM induction factors (radians)
======  Beddoes-Leishman Unsteady Airfoil Aerodynamics Options  =====================================
            3  UAMod          - Unsteady Aero Model: Minemma/Pierce variant (changes in Cc and Cm)
            T  FLookup        - Use a lookup for f'? Yes
======  Outputs  ====================================================================================
            9  NBlOuts        - Number of blade nodes selected for output
           50  NumBlNds       - Number of blade nodes in the analysis
               Blade nodes selected for output:  Output node  Analysis node
                                                 -----------  -------------
                                                           1              1
                                                           2              6
                                                           3             11
                                                           4             22
                                                           5             32
                                                           6             39
                                                           7             43
                                                           8             47
                                                           9             50
            0  NTwOuts        - Number of tower nodes selected for output
               Requested Output Channels:
               Col   Parameter  Units
               ----  ---------  -----
                  0  Time       (s)       
                  1  RtArea     (m^2)     
                  2  RtSpeed    (rpm)     
                  3  RtTSR      (-)       
                  4  RtVAvgxh   (m/s)     
                  5  RtVAvgyh   (m/s)     
                  6  RtVAvgzh   (m/s)     
                  7  B1N1Vindx  (m/s)     
                  8  B1N1Vindy  (m/s)     
                  9  B1N1AxInd  (-)       
                 10  B1N1TnInd  (-)       
                 11  B1N1Alpha  (deg)     
                 12  B1N2Alpha  (deg)     
                 13  B1N3Alpha  (deg)     
                 14  B1N4Alpha  (deg)     
                 15  B1N5Alpha  (deg)     
                 16  B1N6Alpha  (deg)     
                 17  B1N7Alpha  (deg)     
                 18  B1N8Alpha  (deg)     
                 19  B1N9Alpha  (deg)     
                 20  B1N1Cl     (-)       
                 21  B1N2Cl     (-)       
                 22  B1N3Cl     (-)       
                 23  B1N4Cl     (-)       
                 24  B1N5Cl     (-)       
                 25  B1N6Cl     (-)       
                 26  B1N7Cl     (-)       
                 27  B1N8Cl     (-)       
                 28  B1N9Cl     (-)       
                 29  B1N1Cd     (-)       
                 30  B1N2Cd     (-)       
                 31  B1N3Cd     (-)       
                 32  B1N4Cd     (-)       
                 33  B1N5Cd     (-)       
                 34  B1N6Cd     (-)       
                 35  B1N7Cd     (-)       
                 36  B1N8Cd     (-)       
                 37  B1N9Cd     (-)       
                 38  B1N1Fl     (N/m)     
                 39  B1N2Fl     (N/m)     
                 40  B1N3Fl     (N/m)     
                 41  B1N4Fl     (N/m)     
                 42  B1N5Fl     (N/m)     
                 43  B1N6Fl     (N/m)     
                 44  B1N7Fl     (N/m)     
                 45  B1N8Fl     (N/m)     
                 46  B1N9Fl     (N/m)     
                 47  B1N1Fd     (N/m)     
                 48  B1N2Fd     (N/m)     
                 49  B1N3Fd     (N/m)     
                 50  B1N4Fd     (N/m)     
                 51  B1N5Fd     (N/m)     
                 52  B1N6Fd     (N/m)     
                 53  B1N7Fd     (N/m)     
                 54  B1N8Fd     (N/m)     
                 55  B1N9Fd     (N/m)     
