
This summary information was generated by ElastoDyn on 24-Jan-2020 at 11:36:42.


Turbine features:

            Upwind, three-bladed rotor with rigid hub.
            The model has 10 of 24 DOFs active (enabled) at start-up.
 Disabled   Platform horizontal surge translation DOF 
 Disabled   Platform horizontal sway translation DOF 
 Disabled   Platform vertical heave translation DOF 
 Disabled   Platform roll tilt rotation DOF 
 Disabled   Platform pitch tilt rotation DOF 
 Disabled   Platform yaw rotation DOF 
 Disabled   1st tower fore-aft bending mode DOF 
 Disabled   1st tower side-to-side bending mode DOF 
 Disabled   2nd tower fore-aft bending mode DOF 
 Disabled   2nd tower side-to-side bending mode DOF 
 Disabled   Nacelle yaw DOF 
 Disabled   Rotor-furl DOF 
 Enabled    Variable speed generator DOF 
 Disabled   Drivetrain rotational-flexibility DOF 
 Disabled   Tail-furl DOF 
 Enabled    1st flapwise bending-mode DOF of blade 1 
 Enabled    1st edgewise bending-mode DOF of blade 1 
 Enabled    2nd flapwise bending-mode DOF of blade 1 
 Enabled    1st flapwise bending-mode DOF of blade 2 
 Enabled    1st edgewise bending-mode DOF of blade 2 
 Enabled    2nd flapwise bending-mode DOF of blade 2 
 Enabled    1st flapwise bending-mode DOF of blade 3 
 Enabled    1st edgewise bending-mode DOF of blade 3 
 Enabled    2nd flapwise bending-mode DOF of blade 3 


Time steps:

    Structural            (s)        0.00625000


Some calculated parameters:

    Hub-Height            (m)           143.704
    Flexible Tower Length (m)           140.000
    Flexible Blade Length (m)            99.996


Rotor mass properties:

    Rotor Mass            (kg)       247686.592
    Rotor Inertia         (kg-m^2)303490201.679
                                        Blade 1      Blade 2      Blade 3
                                        -------      -------      -------
    Mass                  (kg)        62156.328    62156.328    62156.328
    Second Mass Moment    (kg-m^2) 90070516.476 90070516.476 90070516.476
    First Mass Moment     (kg-m)    1775104.016  1775104.016  1775104.016
    Center of Mass        (m)            28.559       28.559       28.559


Additional mass properties:

    Tower-top Mass        (kg)       656764.064
    Tower Mass            (kg)       555301.740
    Platform Mass         (kg)            0.000
    Mass Incl. Platform   (kg)      1212065.804


Interpolated tower properties:

Node  TwFract   HNodes  DHNodes  TMassDen    FAStiff    SSStiff
 (-)      (-)      (m)      (m)    (kg/m)     (Nm^2)     (Nm^2)
   1    0.025    3.500    7.000  5501.260  5.945E+11  5.945E+11
   2    0.075   10.500    7.000  5322.040  5.547E+11  5.547E+11
   3    0.125   17.500    7.000  5145.763  5.169E+11  5.169E+11
   4    0.175   24.500    7.000  4972.428  4.812E+11  4.812E+11
   5    0.225   31.500    7.000  4802.038  4.472E+11  4.472E+11
   6    0.275   38.500    7.000  4634.592  4.152E+11  4.152E+11
   7    0.325   45.500    7.000  4470.090  3.848E+11  3.848E+11
   8    0.375   52.500    7.000  4308.530  3.562E+11  3.562E+11
   9    0.425   59.500    7.000  4149.915  3.292E+11  3.292E+11
  10    0.475   66.500    7.000  3994.245  3.037E+11  3.037E+11
  11    0.525   73.500    7.000  3841.515  2.798E+11  2.798E+11
  12    0.575   80.500    7.000  3691.725  2.573E+11  2.573E+11
  13    0.625   87.500    7.000  3544.880  2.361E+11  2.361E+11
  14    0.675   94.500    7.000  3400.980  2.163E+11  2.163E+11
  15    0.725  101.500    7.000  3260.025  1.978E+11  1.978E+11
  16    0.775  108.500    7.000  3122.015  1.805E+11  1.805E+11
  17    0.825  115.500    7.000  2986.945  1.643E+11  1.643E+11
  18    0.875  122.500    7.000  2854.815  1.493E+11  1.493E+11
  19    0.925  129.500    7.000  2725.630  1.353E+11  1.353E+11
  20    0.975  136.500    7.000  2599.390  1.223E+11  1.223E+11


Interpolated blade 1 properties:

Node  BlFract   RNodes  DRNodes PitchAxis  StrcTwst  BMassDen    FlpStff    EdgStff
 (-)      (-)      (m)      (m)       (-)     (deg)    (kg/m)     (Nm^2)     (Nm^2)
   1    0.029    5.941    5.882     0.484    19.165  2431.887  8.372E+10  8.407E+10
   2    0.088   11.823    5.882     0.436    16.649  1631.891  4.382E+10  5.484E+10
   3    0.147   17.705    5.882     0.382    13.534   992.484  1.644E+10  2.768E+10
   4    0.206   23.587    5.882     0.337    10.488   626.311  8.932E+09  1.435E+10
   5    0.265   29.470    5.882     0.309     8.183   567.675  7.137E+09  1.122E+10
   6    0.324   35.352    5.882     0.293     6.879   557.555  5.922E+09  9.822E+09
   7    0.382   41.234    5.882     0.285     5.936   553.952  4.737E+09  8.240E+09
   8    0.441   47.116    5.882     0.282     5.032   534.699  3.656E+09  6.622E+09
   9    0.500   52.998    5.882     0.283     4.163   503.078  2.650E+09  5.063E+09
  10    0.559   58.880    5.882     0.285     3.308   467.095  1.829E+09  3.692E+09
  11    0.618   64.762    5.882     0.287     2.444   426.211  1.211E+09  2.572E+09
  12    0.676   70.645    5.882     0.290     1.561   376.666  7.412E+08  1.679E+09
  13    0.735   76.527    5.882     0.296     0.581   325.498  4.133E+08  1.056E+09
  14    0.794   82.409    5.882     0.304    -0.492   271.143  1.998E+08  6.354E+08
  15    0.853   88.291    5.882     0.312    -1.775   191.182  7.129E+07  2.994E+08
  16    0.912   94.173    5.882     0.321    -3.445    95.615  1.623E+07  8.240E+07
  17    0.971  100.055    5.882     0.332    -5.534    14.028  9.028E+05  7.669E+06


Interpolated blade 2 properties:

Node  BlFract   RNodes  DRNodes PitchAxis  StrcTwst  BMassDen    FlpStff    EdgStff
 (-)      (-)      (m)      (m)       (-)     (deg)    (kg/m)     (Nm^2)     (Nm^2)
   1    0.029    5.941    5.882     0.484    19.165  2431.887  8.372E+10  8.407E+10
   2    0.088   11.823    5.882     0.436    16.649  1631.891  4.382E+10  5.484E+10
   3    0.147   17.705    5.882     0.382    13.534   992.484  1.644E+10  2.768E+10
   4    0.206   23.587    5.882     0.337    10.488   626.311  8.932E+09  1.435E+10
   5    0.265   29.470    5.882     0.309     8.183   567.675  7.137E+09  1.122E+10
   6    0.324   35.352    5.882     0.293     6.879   557.555  5.922E+09  9.822E+09
   7    0.382   41.234    5.882     0.285     5.936   553.952  4.737E+09  8.240E+09
   8    0.441   47.116    5.882     0.282     5.032   534.699  3.656E+09  6.622E+09
   9    0.500   52.998    5.882     0.283     4.163   503.078  2.650E+09  5.063E+09
  10    0.559   58.880    5.882     0.285     3.308   467.095  1.829E+09  3.692E+09
  11    0.618   64.762    5.882     0.287     2.444   426.211  1.211E+09  2.572E+09
  12    0.676   70.645    5.882     0.290     1.561   376.666  7.412E+08  1.679E+09
  13    0.735   76.527    5.882     0.296     0.581   325.498  4.133E+08  1.056E+09
  14    0.794   82.409    5.882     0.304    -0.492   271.143  1.998E+08  6.354E+08
  15    0.853   88.291    5.882     0.312    -1.775   191.182  7.129E+07  2.994E+08
  16    0.912   94.173    5.882     0.321    -3.445    95.615  1.623E+07  8.240E+07
  17    0.971  100.055    5.882     0.332    -5.534    14.028  9.028E+05  7.669E+06


Interpolated blade 3 properties:

Node  BlFract   RNodes  DRNodes PitchAxis  StrcTwst  BMassDen    FlpStff    EdgStff
 (-)      (-)      (m)      (m)       (-)     (deg)    (kg/m)     (Nm^2)     (Nm^2)
   1    0.029    5.941    5.882     0.484    19.165  2431.887  8.372E+10  8.407E+10
   2    0.088   11.823    5.882     0.436    16.649  1631.891  4.382E+10  5.484E+10
   3    0.147   17.705    5.882     0.382    13.534   992.484  1.644E+10  2.768E+10
   4    0.206   23.587    5.882     0.337    10.488   626.311  8.932E+09  1.435E+10
   5    0.265   29.470    5.882     0.309     8.183   567.675  7.137E+09  1.122E+10
   6    0.324   35.352    5.882     0.293     6.879   557.555  5.922E+09  9.822E+09
   7    0.382   41.234    5.882     0.285     5.936   553.952  4.737E+09  8.240E+09
   8    0.441   47.116    5.882     0.282     5.032   534.699  3.656E+09  6.622E+09
   9    0.500   52.998    5.882     0.283     4.163   503.078  2.650E+09  5.063E+09
  10    0.559   58.880    5.882     0.285     3.308   467.095  1.829E+09  3.692E+09
  11    0.618   64.762    5.882     0.287     2.444   426.211  1.211E+09  2.572E+09
  12    0.676   70.645    5.882     0.290     1.561   376.666  7.412E+08  1.679E+09
  13    0.735   76.527    5.882     0.296     0.581   325.498  4.133E+08  1.056E+09
  14    0.794   82.409    5.882     0.304    -0.492   271.143  1.998E+08  6.354E+08
  15    0.853   88.291    5.882     0.312    -1.775   191.182  7.129E+07  2.994E+08
  16    0.912   94.173    5.882     0.321    -3.445    95.615  1.623E+07  8.240E+07
  17    0.971  100.055    5.882     0.332    -5.534    14.028  9.028E+05  7.669E+06


Requested Outputs:


 Col   Parameter  Units     
 ---   ---------- ----------
   0   Time       (s)       
   1   Azimuth    (deg)     
   2   BldPitch1  (deg)     
   3   BldPitch2  (deg)     
   4   BldPitch3  (deg)     
   5   GenSpeed   (rpm)     
   6   IPDefl1    (m)       
   7   LSSGagMya  (kN-m)    
   8   LSSGagMza  (kN-m)    
   9   LSShftPwr  (kW)      
  10   LSShftTq   (kN-m)    
  11   OoPDefl1   (m)       
  12   RotPwr     (kW)      
  13   RotSpeed   (rpm)     
  14   RotThrust  (kN)      
  15   RotTorq    (kN-m)    
  16   Spn2MLxb1  (kN-m)    
  17   Spn2MLyb1  (kN-m)    
  18   TTDspFA    (m)       
  19   TTDspSS    (m)       
  20   TTDspTwst  (deg)     
  21   TwrBsFxt   (kN)      
  22   TwrBsFyt   (kN)      
  23   TwrBsFzt   (kN)      
  24   TwrBsMxt   (kN-m)    
  25   TwrBsMyt   (kN-m)    
  26   TwrBsMzt   (kN-m)    
  27   TwstDefl1  (deg)     
  28   YawBrFxp   (kN)      
  29   YawBrFyp   (kN)      
  30   YawBrFzp   (kN)      
  31   YawBrMxp   (kN-m)    
  32   YawBrMyp   (kN-m)    
  33   YawBrMzp   (kN-m)    
  34   RootFxb1   (kN)      
  35   RootFyb1   (kN)      
  36   RootFzb1   (kN)      
  37   RootMxb1   (kN-m)    
  38   RootMyb1   (kN-m)    
  39   RootMzb1   (kN-m)    
  40   RootFxb2   (kN)      
  41   RootFyb2   (kN)      
  42   RootFzb2   (kN)      
  43   RootMxb2   (kN-m)    
  44   RootMyb2   (kN-m)    
  45   RootMzb2   (kN-m)    
  46   RootFxb3   (kN)      
  47   RootFyb3   (kN)      
  48   RootFzb3   (kN)      
  49   RootMxb3   (kN-m)    
  50   RootMyb3   (kN-m)    
  51   RootMzb3   (kN-m)    
