AeroDyn airfoil file.Compatible with AeroDyn v13.0.Generated by airfoilprep.py2         		Number of airfoil tables in this file   7.000000  	Reynolds number in millions.            0.000000  	Control setting                         5.672084  	Stall angle (deg)                       -4.189475 	Angle of attack for zero Cn for linear Cn curve (deg)7.003901  	Cn slope for zero lift for linear Cn curve (1/rad)1.205488  	Cn at stall value for positive angle of attack for linear Cn curve-1.001739 	Cn at stall value for negative angle of attack for linear Cn curve-0.043633 	Angle of attack for minimum CD (deg)    0.005700  	Minimum CD value                        -14.500000	-1.050000 	0.056700  	-0.037800 -14.240000	-1.039871 	0.053609  	-0.037497 -13.240000	-1.000916 	0.041722  	-0.036333 -12.220000	-0.961181 	0.029596  	-0.035145 -12.010000	-0.953000 	0.027100  	-0.034900 -11.220000	-0.911545 	0.029603  	-0.035839 -11.000000	-0.900000 	0.030300  	-0.036100 -10.190000	-0.842029 	0.029029  	-0.044279 -9.980000 	-0.827000 	0.028700  	-0.046400 -9.700000 	-0.783194 	0.026246  	-0.051774 -9.180000 	-0.701839 	0.021689  	-0.061755 -8.180000 	-0.545387 	0.012926  	-0.080948 -8.120000 	-0.536000 	0.012400  	-0.082100 -7.620000 	-0.467000 	0.010900  	-0.092400 -7.190000 	-0.404608 	0.009467  	-0.100073 -7.110000 	-0.393000 	0.009200  	-0.101500 -6.650000 	-0.329863 	0.008388  	-0.106731 -6.600000 	-0.323000 	0.008300  	-0.107300 -6.500000 	-0.311000 	0.008900  	-0.108300 -6.130000 	-0.262160 	0.008382  	-0.110446 -6.000000 	-0.245000 	0.008200  	-0.111200 -5.500000 	-0.178000 	0.007400  	-0.114600 -5.000000 	-0.113000 	0.006900  	-0.117200 -4.500000 	-0.048000 	0.006500  	-0.119400 -4.000000 	0.016000  	0.006300  	-0.121300 -3.500000 	0.080000  	0.006100  	-0.123200 -3.000000 	0.145000  	0.005800  	-0.125200 -2.500000 	0.208000  	0.005700  	-0.126800 -2.000000 	0.270000  	0.005700  	-0.128200 -1.500000 	0.333000  	0.005700  	-0.129700 -1.000000 	0.396000  	0.005700  	-0.131000 -0.500000 	0.458000  	0.005700  	-0.132400 0.000000  	0.521000  	0.005700  	-0.133700 0.500000  	0.583000  	0.005700  	-0.135000 1.000000  	0.645000  	0.005800  	-0.136300 1.500000  	0.706000  	0.005800  	-0.137400 2.000000  	0.768000  	0.005900  	-0.138500 2.500000  	0.828000  	0.006100  	-0.139500 3.000000  	0.888000  	0.006300  	-0.140300 3.500000  	0.948000  	0.006600  	-0.140600 4.000000  	0.996000  	0.007100  	-0.139800 4.500000  	1.046000  	0.007900  	-0.139000 5.000000  	1.095000  	0.009000  	-0.137800 5.500000  	1.145000  	0.010300  	-0.136900 6.000000  	1.192000  	0.011300  	-0.135300 6.500000  	1.239000  	0.012200  	-0.133800 7.000000  	1.283000  	0.013100  	-0.131700 7.500000  	1.324000  	0.013900  	-0.129100 8.000000  	1.358000  	0.014700  	-0.124900 8.500000  	1.385000  	0.015800  	-0.121300 9.000000  	1.403000  	0.018100  	-0.117700 9.500000  	1.401000  	0.021100  	-0.114200 10.000000 	1.358000  	0.025500  	-0.110300 10.500000 	1.313000  	0.030100  	-0.106600 11.000000 	1.287000  	0.034700  	-0.103200 11.500000 	1.274000  	0.040100  	-0.100200 12.000000 	1.272000  	0.046800  	-0.097100 12.500000 	1.273000  	0.054500  	-0.094000 13.000000 	1.273000  	0.063300  	-0.090900 13.500000 	1.273000  	0.072200  	-0.088300 14.000000 	1.272000  	0.080600  	-0.086500 14.500000 	1.273000  	0.090000  	-0.085400 15.000000 	1.275000  	0.098700  	-0.084900 15.500000 	1.281000  	0.107500  	-0.084700 16.000000 	1.284000  	0.117000  	-0.085000 16.500000 	1.296000  	0.127000  	-0.085800 17.000000 	1.306000  	0.136800  	-0.086900 17.500000 	1.308000  	0.146400  	-0.088300 18.000000 	1.308000  	0.156200  	-0.090100 18.500000 	1.308000  	0.166400  	-0.092200 19.000000 	1.308000  	0.177000  	-0.094900 19.500000 	1.307000  	0.187800  	-0.098000 20.000000 	1.311000  	0.198700  	-0.101700 20.500000 	1.325000  	0.210000  	-0.105000 EOT9.000000  	Reynolds number in millions.            0.000000  	Control setting                         7.859269  	Stall angle (deg)                       -2.130209 	Angle of attack for zero Cn for linear Cn curve (deg)7.624413  	Cn slope for zero lift for linear Cn curve (1/rad)1.329311  	Cn at stall value for positive angle of attack for linear Cn curve-0.792464 	Cn at stall value for negative angle of attack for linear Cn curve0.000000  	Angle of attack for minimum CD (deg)    0.008700  	Minimum CD value                        -14.500000	-1.229000 	0.146100  	-0.037800 -14.240000	-1.229000 	0.146100  	-0.037800 -13.240000	-1.148000 	0.126300  	-0.034900 -12.220000	-1.052000 	0.105100  	-0.036100 -12.010000	-1.033730 	0.101635  	-0.038263 -11.220000	-0.965000 	0.088600  	-0.046400 -11.000000	-0.944068 	0.085482  	-0.054025 -10.190000	-0.867000 	0.074000  	-0.082100 -9.980000 	-0.847714 	0.071600  	-0.086514 -9.700000 	-0.822000 	0.068400  	-0.092400 -9.180000 	-0.769000 	0.060500  	-0.101500 -8.180000 	-0.756000 	0.027000  	-0.107300 -8.120000 	-0.752000 	0.026455  	-0.107361 -7.620000 	-0.718667 	0.021909  	-0.107866 -7.190000 	-0.690000 	0.018000  	-0.108300 -7.110000 	-0.679037 	0.017793  	-0.108730 -6.650000 	-0.616000 	0.016600  	-0.111200 -6.600000 	-0.608885 	0.016465  	-0.111527 -6.500000 	-0.594654 	0.016196  	-0.112181 -6.130000 	-0.542000 	0.015200  	-0.114600 -6.000000 	-0.525000 	0.011700  	-0.117200 -5.500000 	-0.451000 	0.010500  	-0.119400 -5.000000 	-0.382000 	0.009700  	-0.121300 -4.500000 	-0.314000 	0.009200  	-0.123200 -4.000000 	-0.251000 	0.009100  	-0.125200 -3.500000 	-0.189000 	0.008900  	-0.126800 -3.000000 	-0.120000 	0.008900  	-0.128200 -2.500000 	-0.051000 	0.008800  	-0.129700 -2.000000 	0.017000  	0.008800  	-0.131000 -1.500000 	0.085000  	0.008800  	-0.132400 -1.000000 	0.152000  	0.008800  	-0.133700 -0.500000 	0.219000  	0.008800  	-0.135000 0.000000  	0.288000  	0.008700  	-0.136300 0.500000  	0.354000  	0.008700  	-0.137400 1.000000  	0.421000  	0.008800  	-0.138500 1.500000  	0.487000  	0.008900  	-0.139500 2.000000  	0.554000  	0.009000  	-0.140300 2.500000  	0.619000  	0.009100  	-0.140600 3.000000  	0.685000  	0.009200  	-0.139800 3.500000  	0.749000  	0.009300  	-0.139000 4.000000  	0.815000  	0.009500  	-0.137800 4.500000  	0.879000  	0.009600  	-0.136900 5.000000  	0.944000  	0.009700  	-0.135300 5.500000  	1.008000  	0.009900  	-0.133800 6.000000  	1.072000  	0.010100  	-0.131700 6.500000  	1.135000  	0.010300  	-0.129100 7.000000  	1.197000  	0.010700  	-0.124900 7.500000  	1.256000  	0.011200  	-0.121300 8.000000  	1.305000  	0.012500  	-0.117700 8.500000  	1.347500  	0.014000  	-0.115950 9.000000  	1.390000  	0.015500  	-0.114200 9.500000  	1.424000  	0.017100  	-0.110300 10.000000 	1.458000  	0.019200  	-0.106600 10.500000 	1.488000  	0.021900  	-0.103200 11.000000 	1.512000  	0.025500  	-0.100200 11.500000 	1.533000  	0.030700  	-0.097100 12.000000 	1.549000  	0.037000  	-0.094000 12.500000 	1.558000  	0.045200  	-0.090900 13.000000 	1.470000  	0.063000  	-0.088300 13.500000 	1.398000  	0.078400  	-0.086500 14.000000 	1.354000  	0.093100  	-0.085400 14.500000 	1.336000  	0.108100  	-0.084900 15.000000 	1.333000  	0.123900  	-0.084700 15.500000 	1.326000  	0.141500  	-0.085000 16.000000 	1.329000  	0.159200  	-0.085800 16.500000 	1.326000  	0.174300  	-0.086900 17.000000 	1.321000  	0.190300  	-0.088300 17.500000 	1.331000  	0.204400  	-0.090100 18.000000 	1.333000  	0.218600  	-0.092200 18.500000 	1.340000  	0.232400  	-0.094900 19.000000 	1.362000  	0.245500  	-0.098000 19.500000 	1.362000  	0.245500  	-0.098000 20.000000 	1.362000  	0.245500  	-0.098000 20.500000 	1.362000  	0.245500  	-0.098000 EOT